63

Al	2.8273986335248935	4.8368779486165474	5.8322465506646806
Al	0.0784496884635013	4.8822437974101183	4.3710018886725592
Al	1.4627315276395803	2.4484638669522218	4.0961622683592429
Al	2.8179395999999839	4.8300645000000211	2.1815598000000853
Al	0.0289249000000181	4.8300154000000086	1.6802043999999690
Al	1.4220571000000206	2.4149609000000050	0.0000000000000000
Al	2.8218741993489318	9.6795911098871450	5.3942893504539633
Al	0.0453918759521220	9.6742503799482495	4.3483964937146586
Al	1.4312887934841854	7.2288194999805189	4.0504150581702243
Al	2.8179395999999839	9.6600645000000220	2.1815598000000853
Al	0.0289249000000181	9.6600154000000096	1.6802043999999690
Al	1.4220571000000206	7.2449609000000059	0.0000000000000000
Al	7.0686631315429969	7.3521616079637209	4.8224513501818276
Al	4.1273680604116878	7.2584219711227878	4.3233135548753303
Al	5.5532480526360972	4.7675423194344990	3.9510383457494012
Al	7.0008423000000013	7.2450645000000211	2.1815598000000853
Al	4.2118275999999764	7.2450153999999749	1.6802043999999690
Al	5.6049597999999792	4.8299608999999712	0.0000000000000000
Al	6.9882759336594855	12.1161601400524965	5.3882973161134426
Al	4.1851910143441833	2.4648381730977009	4.3328120657546902
Al	5.6204262985027338	9.7217361579731847	4.1057071758563870
Al	7.0008423000000013	12.0750645000000212	2.1815598000000853
Al	4.2118275999999764	12.0750153999999768	1.6802043999999690
Al	5.6049597999999792	9.6599608999999713	0.0000000000000000
O	2.7896514294617467	1.7150711401164964	5.2221673757949780
O	1.4244805363300572	3.9908362163780668	5.1582811735635437
O	0.1271841074666871	1.6188652512885331	5.1855837457860394
O	2.9198376395916781	3.1540963174519812	3.0074175847892328
O	1.3019922651239229	5.5728646005827169	3.0048297260502963
O	8.3294877478336335	8.1068296142884737	3.1278081080778652
O	4.0999863999999864	4.0889374999999673	0.8398835000000477
O	2.8169412999999852	6.3120202999999790	0.8400474000000712
O	1.5336556000000066	4.0890556999999959	0.8399166999999106
O	2.7624561973300392	6.4874590806273105	5.1414271267427933
O	1.3811580172178317	8.7843121562444839	5.2002043392310471
O	0.1202945434582317	6.4867495703538598	5.2116525181850752
O	2.9425484680437424	8.0087047217506910	3.0238251758488426
O	1.3269223788564539	10.4065527347448779	3.0371603251200572
O	0.0082337237131150	8.1858317723733869	3.0444683801159540
O	4.0999863999999864	8.9189374999999682	0.8398835000000477
O	2.8169412999999852	11.1420202999999791	0.8400474000000712
O	1.5336556000000066	8.9190556999999959	0.8399166999999106
O	6.9326148574132169	4.1526676666667006	5.1892251652326484
O	5.5725507291875251	6.4133104754946357	5.2856441948805184
O	4.2855373436648678	4.0925999023297832	5.1114721837804638
O	7.0456749445578915	5.6490604768114308	3.1171380212791187
O	5.6262446441242169	7.9437392955033879	3.2225424705667867
O	4.2368448403367900	5.7867487955622510	3.0108932652312022
O	8.2828891000000038	6.5039374999999664	0.8398835000000477
O	6.9998440000000031	8.7270202999999817	0.8400474000000712
O	5.7165583000000249	6.5040556999999950	0.8399166999999106
O	6.9791841835639348	9.0221467675472873	5.2232147801622952
O	5.5305069596646499	11.2468909075519292	5.2148224539090329
O	4.3016591376619253	8.8469156234319311	5.2164010701791783
O	7.0959316890944981	10.4300344227335220	3.0441119330560347
O	5.5168959253446470	12.8146590914442093	3.0114578989304364
O	4.2120079567747917	10.5607328934346629	3.0575585254019222
O	8.2828891000000038	11.3339374999999656	0.8398835000000477
O	6.9998440000000031	13.5570202999999800	0.8400474000000712
O	5.7165583000000249	11.3340556999999968	0.8399166999999106
O	3.1577919516638073	4.8905721587203761	7.5385618229377620
H	2.5647913615977935	5.3557376365957898	8.1446169448684280
H	5.4236195300104484	5.9915180743107275	6.1571864427904766
